data_Fe
_symmetry_space_group_name_H-M   'Im-3m'
_symmetry_Int_Tables_number     229
_cell_length_a   2.8665
_cell_length_b   2.8665
_cell_length_c   2.8665
_cell_angle_alpha  90
_cell_angle_beta   90
_cell_angle_gamma  90

loop_
 _atom_site_label
 _atom_site_type_symbol
 _atom_site_fract_x
 _atom_site_fract_y
 _atom_site_fract_z
Fe1  Fe  0.00000  0.00000  0.00000
Fe2  Fe  0.50000  0.50000  0.50000
